Circuit: * C:\Users\karab\OneDrive\Documents\GitHub\EE464-Project\Circuits\Flyback_LT8316.asc

Error on line 1928 : .model std12100tr d(vrev=100 vf=0.75)
	* Unrecognized parameter "vf" -- ignored
Per .tran options, skipping operating point for transient analysis.
Ignoring empty pin current: Ix(endoscreset:in)
Ignoring empty pin current: Ix(endoscreset:out)
Ignoring empty pin current: Ix(endleb:in)
Ignoring empty pin current: Ix(endleb:out)
Ignoring empty pin current: Ix(maxontime:in)
Ignoring empty pin current: Ix(maxontime:out)
Ignoring empty pin current: Ix(dprimeest:in)
Ignoring empty pin current: Ix(dprimeest:out)
Ignoring empty pin current: Ix(enddcmblank:in)
Ignoring empty pin current: Ix(enddcmblank:out)
Ignoring empty pin current: Ix(endsample:in)
Ignoring empty pin current: Ix(endsample:out)
Ignoring empty pin current: Ix(backuposc:in)
Ignoring empty pin current: Ix(backuposc:out)
Ignoring empty pin current: Ix(endreset:in)
Ignoring empty pin current: Ix(endreset:out)
Ignoring empty pin current: Ix(sleep:in)
Ignoring empty pin current: Ix(sleep:out)
Ignoring empty pin current: Ix(u1:2)
Ignoring empty pin current: Ix(u1:3)
Ignoring empty pin current: Ix(u1:4)
Ignoring empty pin current: Ix(u1:5)
Ignoring empty pin current: Ix(u1:6)
Ignoring empty pin current: Ix(u1:7)
Heightened Def Con from 0.0194297 to 0.0194297

Date: Sat May 01 05:10:50 2021
Total elapsed time: 10.482 seconds.

tnom = 27
temp = 27
method = modified trap
totiter = 1070273
traniter = 1070273
tranpoints = 358334
accept = 248602
rejected = 109733
matrix size = 50
fillins = 13
solver = Normal
Thread vector: 7.6/6.6[2] 2.8/2.6[1] 1.3/1.0[2] 0.2/0.7[1]  2592/500
Matrix Compiler1: 2.54 KB object code size  2.6/0.4/[0.2]
Matrix Compiler2: 3.67 KB object code size  0.3/0.6/[0.2]

