Circuit: * C:\Users\karab\OneDrive\Documents\GitHub\EE464-Project\Circuits\Flyback_LT8316.asc

Error on line 1931 : .model std12100tr d(vrev=100 vf=0.75)
	* Unrecognized parameter "vf" -- ignored
Per .tran options, skipping operating point for transient analysis.
Ignoring empty pin current: Ix(endoscreset:in)
Ignoring empty pin current: Ix(endoscreset:out)
Ignoring empty pin current: Ix(endleb:in)
Ignoring empty pin current: Ix(endleb:out)
Ignoring empty pin current: Ix(maxontime:in)
Ignoring empty pin current: Ix(maxontime:out)
Ignoring empty pin current: Ix(dprimeest:in)
Ignoring empty pin current: Ix(dprimeest:out)
Ignoring empty pin current: Ix(enddcmblank:in)
Ignoring empty pin current: Ix(enddcmblank:out)
Ignoring empty pin current: Ix(endsample:in)
Ignoring empty pin current: Ix(endsample:out)
Ignoring empty pin current: Ix(backuposc:in)
Ignoring empty pin current: Ix(backuposc:out)
Ignoring empty pin current: Ix(endreset:in)
Ignoring empty pin current: Ix(endreset:out)
Ignoring empty pin current: Ix(sleep:in)
Ignoring empty pin current: Ix(sleep:out)
Ignoring empty pin current: Ix(u1:2)
Ignoring empty pin current: Ix(u1:3)
Ignoring empty pin current: Ix(u1:4)
Ignoring empty pin current: Ix(u1:5)
Ignoring empty pin current: Ix(u1:6)
Ignoring empty pin current: Ix(u1:7)
Heightened Def Con from 0.0185444 to 0.0185444

Date: Fri May 07 23:05:13 2021
Total elapsed time: 25.582 seconds.

tnom = 27
temp = 27
method = modified trap
totiter = 1727809
traniter = 1727809
tranpoints = 577920
accept = 386982
rejected = 190939
matrix size = 57
fillins = 19
solver = Normal
Thread vector: 6.3/5.0[2] 2.4/1.9[2] 0.9/0.7[2] 0.1/0.5[1]  2592/500
Matrix Compiler1: 3.14 KB object code size  0.5/0.3/[0.2]
Matrix Compiler2: 4.29 KB object code size  0.3/0.4/[0.2]

