Circuit: * C:\Users\karab\OneDrive\Documents\GitHub\EE464-Project\Circuits\Flyback_LT8316.asc

Error on line 1928 : .model std12100tr d(vrev=100 vf=0.75)
	* Unrecognized parameter "vf" -- ignored
Per .tran options, skipping operating point for transient analysis.
Ignoring empty pin current: Ix(endoscreset:in)
Ignoring empty pin current: Ix(endoscreset:out)
Ignoring empty pin current: Ix(endleb:in)
Ignoring empty pin current: Ix(endleb:out)
Ignoring empty pin current: Ix(maxontime:in)
Ignoring empty pin current: Ix(maxontime:out)
Ignoring empty pin current: Ix(dprimeest:in)
Ignoring empty pin current: Ix(dprimeest:out)
Ignoring empty pin current: Ix(enddcmblank:in)
Ignoring empty pin current: Ix(enddcmblank:out)
Ignoring empty pin current: Ix(endsample:in)
Ignoring empty pin current: Ix(endsample:out)
Ignoring empty pin current: Ix(backuposc:in)
Ignoring empty pin current: Ix(backuposc:out)
Ignoring empty pin current: Ix(endreset:in)
Ignoring empty pin current: Ix(endreset:out)
Ignoring empty pin current: Ix(sleep:in)
Ignoring empty pin current: Ix(sleep:out)
Ignoring empty pin current: Ix(u1:2)
Ignoring empty pin current: Ix(u1:3)
Ignoring empty pin current: Ix(u1:4)
Ignoring empty pin current: Ix(u1:5)
Ignoring empty pin current: Ix(u1:6)
Ignoring empty pin current: Ix(u1:7)

Date: Wed May 05 21:11:05 2021
Total elapsed time: 2717.967 seconds.

tnom = 27
temp = 27
method = modified trap
totiter = 311204761
traniter = 311204761
tranpoints = 102134682
accept = 68045375
rejected = 34089307
matrix size = 50
fillins = 13
solver = Normal
Thread vector: 5.3/3.7[2] 1.9/1.7[2] 0.9/0.7[2] 0.1/0.5[1]  2592/500
Matrix Compiler1: 2.54 KB object code size  0.5/0.2/[0.2]
Matrix Compiler2: 3.67 KB object code size  0.2/0.4/[0.2]

