Circuit: * C:\Users\karab\OneDrive\Documents\GitHub\EE464-Project\Circuits\voltage_protection.asc

Direct Newton iteration for .op point succeeded.

Date: Fri May 07 18:11:55 2021
Total elapsed time: 0.332 seconds.

tnom = 27
temp = 27
method = modified trap
totiter = 4588
traniter = 4579
tranpoints = 1613
accept = 1441
rejected = 172
matrix size = 20
fillins = 0
solver = Normal
Matrix Compiler1: 952 bytes object code size  0.2/0.2/[0.1]
Matrix Compiler2: 1.51 KB object code size  0.1/0.2/[0.1]

