Circuit: * C:\Users\karab\OneDrive\Documents\GitHub\EE464-Project\Circuits\voltage_protection.asc

Direct Newton iteration for .op point succeeded.

Date: Sat May 01 03:11:24 2021
Total elapsed time: 0.236 seconds.

tnom = 27
temp = 27
method = modified trap
totiter = 3023
traniter = 3014
tranpoints = 1226
accept = 1152
rejected = 74
matrix size = 17
fillins = 2
solver = Normal
Matrix Compiler1: 936 bytes object code size  0.1/0.1/[0.1]
Matrix Compiler2: 1.34 KB object code size  0.1/0.1/[0.1]

